Version 4
SHEET 1 880 680
SYMBOL integrator_module 624 -96 R0
SYMATTR InstName X1
SYMBOL integrator_module 160 -96 R0
SYMATTR InstName X2
SYMBOL integrator_module -320 -96 R0
SYMATTR InstName X3
SYMBOL multiplier_module -80 -96 R0
SYMATTR InstName X4
SYMBOL multiplier_module -560 -96 R0
SYMATTR InstName X5
SYMBOL sum_module 400 -128 R0
SYMATTR InstName X6
