Version 4.1
SHEET 1 1544 1184
WIRE -272 -512 -304 -512
WIRE 16 -512 -48 -512
WIRE 192 -512 80 -512
WIRE -48 -496 -48 -512
WIRE -272 -448 -304 -448
WIRE -48 -400 -48 -416
WIRE -16 -352 -208 -352
WIRE 224 -336 160 -336
WIRE -16 -304 -112 -304
WIRE -112 -288 -112 -304
WIRE -208 -240 -208 -272
WIRE -112 -176 -112 -208
WIRE 224 -32 -272 -32
WIRE 432 -32 224 -32
WIRE 624 -32 432 -32
WIRE 816 -32 624 -32
WIRE 960 -32 816 -32
WIRE 1024 -32 960 -32
WIRE 1504 -32 1024 -32
WIRE 960 48 960 -32
WIRE -272 64 -272 -32
WIRE -112 64 -128 64
WIRE 224 64 224 48
WIRE 224 64 -32 64
WIRE 304 64 224 64
WIRE 432 64 432 48
WIRE 432 64 384 64
WIRE 496 64 432 64
WIRE 624 64 624 48
WIRE 624 64 576 64
WIRE 688 64 624 64
WIRE 816 64 816 48
WIRE 816 64 768 64
WIRE 1024 64 1024 32
WIRE 1152 64 1024 64
WIRE 1248 64 1232 64
WIRE 1280 64 1248 64
WIRE 1024 80 1024 64
WIRE 1248 112 1248 64
WIRE 224 128 224 64
WIRE 432 128 432 64
WIRE 624 128 624 64
WIRE 816 128 816 64
WIRE -128 160 -128 64
WIRE 32 160 -48 160
WIRE -272 240 -272 144
WIRE -128 240 -128 160
WIRE -128 240 -272 240
WIRE 224 240 224 224
WIRE 432 240 432 224
WIRE 432 240 224 240
WIRE 624 240 624 224
WIRE 624 240 432 240
WIRE 816 240 816 224
WIRE 816 240 624 240
WIRE 960 240 960 128
WIRE 960 240 816 240
WIRE 1024 240 1024 160
WIRE 1024 240 960 240
WIRE 1248 240 1248 176
WIRE 1248 240 1024 240
WIRE 224 256 224 240
WIRE -272 352 -272 240
WIRE 464 416 256 416
WIRE 656 416 464 416
WIRE 848 416 656 416
WIRE 1504 416 1504 -32
WIRE 1504 416 848 416
WIRE -272 496 -272 448
WIRE 32 512 32 160
WIRE 256 512 256 496
WIRE 256 512 32 512
WIRE 336 512 256 512
WIRE 464 512 464 496
WIRE 464 512 416 512
WIRE 528 512 464 512
WIRE 656 512 656 496
WIRE 656 512 608 512
WIRE 720 512 656 512
WIRE 848 512 848 496
WIRE 848 512 800 512
WIRE 256 576 256 512
WIRE 464 576 464 512
WIRE 656 576 656 512
WIRE 848 576 848 512
WIRE 256 688 256 672
WIRE 464 688 464 672
WIRE 464 688 256 688
WIRE 656 688 656 672
WIRE 656 688 464 688
WIRE 848 688 848 672
WIRE 848 688 656 688
WIRE 256 704 256 688
WIRE -48 784 -48 240
WIRE 32 784 -48 784
WIRE 448 848 240 848
WIRE 640 848 448 848
WIRE 832 848 640 848
WIRE 1504 848 1504 416
WIRE 1504 848 832 848
WIRE 32 944 32 784
WIRE 32 944 16 944
WIRE 240 944 240 928
WIRE 240 944 32 944
WIRE 320 944 240 944
WIRE 448 944 448 928
WIRE 448 944 400 944
WIRE 512 944 448 944
WIRE 640 944 640 928
WIRE 640 944 592 944
WIRE 704 944 640 944
WIRE 832 944 832 928
WIRE 832 944 784 944
WIRE 240 1008 240 944
WIRE 448 1008 448 944
WIRE 640 1008 640 944
WIRE 832 1008 832 944
WIRE 240 1120 240 1104
WIRE 448 1120 448 1104
WIRE 448 1120 240 1120
WIRE 640 1120 640 1104
WIRE 640 1120 448 1120
WIRE 832 1120 832 1104
WIRE 832 1120 640 1120
WIRE 240 1136 240 1120
FLAG 224 256 0
FLAG 1280 64 approx_ecg
IOPIN 1280 64 Out
FLAG 256 704 0
FLAG 240 1136 0
FLAG -272 496 0
FLAG -208 -240 0
FLAG -112 -176 0
FLAG -304 -512 v1
IOPIN -304 -512 In
FLAG -304 -448 v2
IOPIN -304 -448 In
FLAG -48 -400 0
FLAG 16 -512 sum
IOPIN 16 -512 Out
FLAG -272 -512 approx_ecg
IOPIN -272 -512 Out
FLAG 224 -336 noise
IOPIN 224 -336 Out
FLAG -272 -448 noise
IOPIN -272 -448 Out
SYMBOL heart_cell_module 224 176 R0
SYMATTR InstName X1
SYMATTR SpiceLine na_leak=500k
SYMBOL heart_cell_module 432 176 R0
SYMATTR InstName X2
SYMATTR SpiceLine na_leak=500k
SYMBOL res 400 48 R90
WINDOW 0 0 56 VBottom 0
WINDOW 3 32 56 VTop 0
SYMATTR InstName R1
SYMATTR Value 1e4
SYMBOL heart_cell_module 624 176 R0
SYMATTR InstName X3
SYMATTR SpiceLine na_leak=500k
SYMBOL heart_cell_module 816 176 R0
SYMATTR InstName X4
SYMATTR SpiceLine na_leak=500k
SYMBOL res 592 48 R90
WINDOW 0 0 56 VBottom 0
WINDOW 3 32 56 VTop 0
SYMATTR InstName R2
SYMATTR Value 1e4
SYMBOL res 784 48 R90
WINDOW 0 0 56 VBottom 0
WINDOW 3 32 56 VTop 0
SYMATTR InstName R3
SYMATTR Value 1e4
SYMBOL res 208 -48 R0
SYMATTR InstName R4
SYMATTR Value 1e6
SYMBOL res 416 -48 R0
SYMATTR InstName R5
SYMATTR Value 1e6
SYMBOL res 608 -48 R0
SYMATTR InstName R6
SYMATTR Value 1e6
SYMBOL res 800 -48 R0
SYMATTR InstName R7
SYMATTR Value 1e6
SYMBOL res 1008 64 R0
SYMATTR InstName R8
SYMATTR Value 1e5
SYMBOL cap 1008 -32 R0
SYMATTR InstName C1
SYMATTR Value .001µf
SYMBOL res 944 32 R0
SYMATTR InstName R9
SYMATTR Value 1e5
SYMBOL res 1248 48 R90
WINDOW 0 0 56 VBottom 0
WINDOW 3 32 56 VTop 0
SYMATTR InstName R10
SYMATTR Value 1e5
SYMBOL cap 1232 112 R0
SYMATTR InstName C2
SYMATTR Value 0.1e-6
SYMBOL heart_cell_module 256 624 R0
SYMATTR InstName X5
SYMATTR SpiceLine na_leak=500k
SYMBOL heart_cell_module 464 624 R0
SYMATTR InstName X6
SYMATTR SpiceLine na_leak=500k
SYMBOL res 432 496 R90
WINDOW 0 0 56 VBottom 0
WINDOW 3 32 56 VTop 0
SYMATTR InstName R11
SYMATTR Value 1e4
SYMBOL heart_cell_module 656 624 R0
SYMATTR InstName X7
SYMATTR SpiceLine na_leak=500k
SYMBOL heart_cell_module 848 624 R0
SYMATTR InstName X8
SYMATTR SpiceLine na_leak=500k
SYMBOL res 624 496 R90
WINDOW 0 0 56 VBottom 0
WINDOW 3 32 56 VTop 0
SYMATTR InstName R12
SYMATTR Value 1e4
SYMBOL res 816 496 R90
WINDOW 0 0 56 VBottom 0
WINDOW 3 32 56 VTop 0
SYMATTR InstName R13
SYMATTR Value 1e4
SYMBOL res 240 400 R0
SYMATTR InstName R14
SYMATTR Value 1e6
SYMBOL res 448 400 R0
SYMATTR InstName R15
SYMATTR Value 1e6
SYMBOL res 640 400 R0
SYMATTR InstName R16
SYMATTR Value 1e6
SYMBOL res 832 400 R0
SYMATTR InstName R17
SYMATTR Value 1e6
SYMBOL res -32 144 R90
WINDOW 0 0 56 VBottom 0
WINDOW 3 32 56 VTop 0
SYMATTR InstName R18
SYMATTR Value 4e5
SYMBOL heart_cell_module 240 1056 R0
SYMATTR InstName X9
SYMATTR SpiceLine na_leak=500k
SYMBOL heart_cell_module 448 1056 R0
SYMATTR InstName X10
SYMATTR SpiceLine na_leak=500k
SYMBOL res 416 928 R90
WINDOW 0 0 56 VBottom 0
WINDOW 3 32 56 VTop 0
SYMATTR InstName R19
SYMATTR Value 1e4
SYMBOL heart_cell_module 640 1056 R0
SYMATTR InstName X11
SYMATTR SpiceLine na_leak=500k
SYMBOL heart_cell_module 832 1056 R0
SYMATTR InstName X12
SYMATTR SpiceLine na_leak=500k
SYMBOL res 608 928 R90
WINDOW 0 0 56 VBottom 0
WINDOW 3 32 56 VTop 0
SYMATTR InstName R20
SYMATTR Value 1e4
SYMBOL res 800 928 R90
WINDOW 0 0 56 VBottom 0
WINDOW 3 32 56 VTop 0
SYMATTR InstName R21
SYMATTR Value 1e4
SYMBOL res 224 832 R0
SYMATTR InstName R22
SYMATTR Value 1e6
SYMBOL res 432 832 R0
SYMATTR InstName R23
SYMATTR Value 1e6
SYMBOL res 624 832 R0
SYMATTR InstName R24
SYMATTR Value 1e6
SYMBOL res 816 832 R0
SYMATTR InstName R25
SYMATTR Value 1e6
SYMBOL res -32 224 R90
WINDOW 0 0 56 VBottom 0
WINDOW 3 32 56 VTop 0
SYMATTR InstName R26
SYMATTR Value 4e5
SYMBOL heart_cell_module -272 400 R0
SYMATTR InstName X13
SYMATTR SpiceLine na_leak=400k
SYMBOL res -16 48 R90
WINDOW 0 0 56 VBottom 0
WINDOW 3 32 56 VTop 0
SYMATTR InstName R27
SYMATTR Value 4e5
SYMBOL res -288 48 R0
SYMATTR InstName R28
SYMATTR Value 1e6
SYMBOL noise_module 112 -336 R0
SYMATTR InstName X14
SYMBOL voltage -208 -368 R0
WINDOW 123 0 0 Left 0
WINDOW 39 0 0 Left 0
SYMATTR InstName V1
SYMATTR Value 0.001
SYMBOL voltage -112 -304 R0
WINDOW 123 0 0 Left 0
WINDOW 39 0 0 Left 0
SYMATTR InstName V2
SYMATTR Value 1000
SYMBOL bv -48 -512 R0
WINDOW 0 44 44 Left 0
WINDOW 3 39 71 Left 0
SYMATTR InstName B1
SYMATTR Value V =  V(v1)  + V(v2)
TEXT -344 616 Left 0 !.tran 0 10.0 0 1e-5
TEXT 888 272 Left 0 ;Ventricle
TEXT -488 320 Left 0 ;Atrial pacemaker
TEXT 904 720 Left 0 ;Ventricle
TEXT 904 1152 Left 0 ;Ventricle
TEXT 16 -216 Left 0 ;.tran 0 1 0 .001
TEXT 192 -512 Left 4 ;ECG Signal
LINE Normal 816 272 432 272 1
LINE Normal 736 720 352 720 1
LINE Normal 720 1152 336 1152 1
LINE Normal 880 272 368 272 1
LINE Normal 896 720 224 720 1
LINE Normal 896 1152 176 1152 1
