Version 4.1
SHEET 1 880 680
WIRE -80 -112 -144 -112
WIRE 64 -112 0 -112
WIRE 544 -112 400 -112
WIRE 400 -48 400 -112
WIRE -240 -32 -240 -128
WIRE -144 -32 -144 -112
WIRE -144 -32 -160 -32
WIRE -144 48 -144 -32
WIRE -96 48 -144 48
WIRE 400 48 400 32
WIRE 400 48 320 48
WIRE 64 64 64 -112
WIRE 64 64 -32 64
WIRE 320 64 320 48
WIRE -336 80 -784 80
WIRE -240 80 -272 80
WIRE -224 80 -240 80
WIRE -144 80 -160 80
WIRE -96 80 -144 80
WIRE 400 80 400 48
WIRE -144 112 -144 80
WIRE -784 128 -784 80
WIRE -240 160 -240 80
WIRE -144 208 -144 192
WIRE 400 224 400 160
WIRE 544 224 400 224
WIRE -240 288 -240 240
WIRE 64 288 64 64
WIRE 64 288 -240 288
FLAG 320 64 0
FLAG 544 -112 V+
IOPIN 544 -112 Out
FLAG 544 224 V-
IOPIN 544 224 Out
FLAG -64 32 V+
IOPIN -64 32 In
FLAG -64 96 V-
IOPIN -64 96 In
FLAG -144 208 0
FLAG -240 -128 0
FLAG -528 224 0
FLAG -784 208 0
SYMBOL voltage 400 -64 R0
WINDOW 123 0 0 Left 0
WINDOW 39 0 0 Left 0
SYMATTR InstName V1
SYMATTR Value 6
SYMBOL voltage 400 64 R0
WINDOW 123 0 0 Left 0
WINDOW 39 0 0 Left 0
SYMATTR InstName V2
SYMATTR Value 6
SYMBOL library\\lib\\sym\\ZZZ\\OpAmps\\UniversalOpamp2 -64 64 R0
SYMATTR InstName U2
SYMBOL cap -160 64 R90
WINDOW 0 0 32 VBottom 2
WINDOW 3 32 32 VTop 2
SYMATTR InstName C1
SYMATTR Value 10”
SYMBOL cap -272 64 R90
WINDOW 0 0 32 VBottom 2
WINDOW 3 32 32 VTop 2
SYMATTR InstName C2
SYMATTR Value 10”
SYMBOL res -144 -48 R90
WINDOW 0 0 56 VBottom 2
WINDOW 3 32 56 VTop 2
SYMATTR InstName R1
SYMATTR Value 1k
SYMBOL res 16 -128 R90
WINDOW 0 0 56 VBottom 2
WINDOW 3 32 56 VTop 2
SYMATTR InstName R2
SYMATTR Value 1k
SYMBOL res -128 208 R180
WINDOW 0 36 76 Left 2
WINDOW 3 36 40 Left 2
SYMATTR InstName R3
SYMATTR Value 270k
SYMBOL res -224 256 R180
WINDOW 0 36 76 Left 2
WINDOW 3 36 40 Left 2
SYMATTR InstName R4
SYMATTR Value 270k
SYMBOL voltage -528 128 R0
WINDOW 123 24 124 Left 2
WINDOW 39 0 0 Left 0
SYMATTR Value2 AC 2 0
SYMATTR InstName V3
SYMATTR Value ""
SYMBOL voltage -784 112 M0
WINDOW 123 0 0 Left 0
WINDOW 39 0 0 Left 0
SYMATTR InstName V5
SYMATTR Value PWL file="D:\Important Files\University\Files\Sem 3\EN2091 - Laboratory Practice and Projects\EN2091 - Lab Project\Analog-ECG-Monitor\Simulations\Instrumentation Amplifier\ECG_with_noise_testValues.txt"
TEXT -624 -376 Left 2 ;.ac dec 1000 0.001 250
TEXT -1256 32 Left 2 !.tran 2
